$ NASTRAN input file created by the Patran 2011 64-Bit input file
$ translator on July      17, 2022 at 14:46:00.
$ Direct Text Input for Nastran System Cell Section
$ Direct Text Input for File Management Section
$ Direct Text Input for Executive Control
$ Linear Static Analysis, Database
SOL 101
CEND
$ Direct Text Input for Global Case Control Data
TITLE = MSC.Nastran job created on 16-Jul-22 at 23:45:57
ECHO = NONE
SUBCASE 1
$ Subcase name : Default
   SUBTITLE=Default
   SPC = 2
   LOAD = 2
   DISPLACEMENT(SORT1,REAL)=ALL
   SPCFORCES(SORT1,REAL)=ALL
   STRESS(SORT1,REAL,VONMISES,BILIN)=ALL
BEGIN BULK
$ Direct Text Input for Bulk Data
PARAM    POST    0
PARAM   PRTMAXIM YES
$ Elements and Element Properties for region : P1
PSHELL   1       1      20.      1               1
$ Pset: "P1" will be imported as: "pshell.1"
CTRIA3   1       1       477     551     476
CTRIA3   2       1       478     552     477
CTRIA3   3       1       479     553     478
CTRIA3   4       1       480     554     479
CTRIA3   5       1       481     555     480
CTRIA3   6       1       482     556     481
CTRIA3   7       1       483     557     482
CTRIA3   8       1       484     558     483
CTRIA3   9       1       485     559     484
CTRIA3   10      1       486     560     485
CTRIA3   11      1       487     561     486
CTRIA3   12      1       488     562     487
CTRIA3   13      1       489     563     488
CTRIA3   14      1       490     564     489
CTRIA3   15      1       491     565     490
CTRIA3   16      1       492     566     491
CTRIA3   17      1       493     567     492
CTRIA3   18      1       494     568     493
CTRIA3   19      1       495     569     494
CTRIA3   20      1       496     570     495
$ ... 20704 like lines cut
$ Referenced Material Records
$ Material Record : Ti
$ Description of Material : Date: 16-Jul-22           Time: 23:40:41
MAT1     1      110000.         .3      4.5-9
$ Nodes of the Entire Model
GRID     1               0.     100.     0.
GRID     2              100.    100.     0.
GRID     3              1.      100.     0.
GRID     4              2.      100.     0.
GRID     5              3.      100.     0.
GRID     6              4.      100.     0.
GRID     7              5.      100.     0.
GRID     8              6.      100.     0.
GRID     9              7.      100.     0.
GRID     10             8.      100.     0.
GRID     11             9.      100.     0.
GRID     12             10.     100.     0.
GRID     13             11.     100.     0.
GRID     14             12.     100.     0.
GRID     15             13.     100.     0.
GRID     16             14.     100.     0.
GRID     17             15.     100.     0.
GRID     18             16.     100.     0.
GRID     19             17.     100.     0.
GRID     20             18.     100.     0.
$ ... 181 like lines cut
GRID*    202                            5.26476-9        0.
*        0.
GRID     203            99.      0.      0.
GRID     204            98.      0.      0.
GRID     205            97.      0.      0.
GRID     206            96.      0.      0.
GRID     207            95.      0.      0.
GRID     208            94.      0.      0.
GRID     209            93.      0.      0.
GRID     210            92.      0.      0.
GRID     211            91.      0.      0.
GRID     212            90.      0.      0.
GRID     213            89.      0.      0.
GRID     214            88.      0.      0.
GRID     215            87.      0.      0.
GRID     216            86.      0.      0.
GRID     217            85.      0.      0.
GRID     218            84.      0.      0.
GRID     219            83.      0.      0.
GRID     220            82.      0.      0.
GRID     221            81.      0.      0.
GRID     222            80.      0.      0.
$ ... 10414 like lines cut
$ Loads for Load Case : Default
SPCADD   2       1
LOAD     2      1.      1.       1
$ Displacement Constraints of Load Set : BC1
SPC1     1       123456  401     THRU    475
$ Pressures of Total Load Set : LOAD
FORCE    1       477            266.63  -1.      0.      0.
FORCE    1       476            266.63  -1.      0.      0.
FORCE    1       478            266.727 -1.      0.      0.
FORCE    1       477            266.727 -1.      0.      0.
FORCE    1       479            266.679 -1.      0.      0.
FORCE    1       478            266.679 -1.      0.      0.
FORCE    1       480            266.592 -1.      0.      0.
FORCE    1       479            266.592 -1.      0.      0.
FORCE    1       481            266.703 -1.      0.      0.
FORCE    1       480            266.703 -1.      0.      0.
FORCE    1       482            266.712 -1.      0.      0.
FORCE    1       481            266.712 -1.      0.      0.
FORCE    1       483            266.585 -1.      0.      0.
FORCE    1       482            266.585 -1.      0.      0.
FORCE    1       484            266.679 -1.      0.      0.
FORCE    1       483            266.679 -1.      0.      0.
FORCE    1       485            266.728 -1.      0.      0.
FORCE    1       484            266.728 -1.      0.      0.
FORCE    1       486            266.647 -1.      0.      0.
FORCE    1       485            266.647 -1.      0.      0.
$ ... 130 like lines cut
$ Force or value sum: 39999.998413
$ Referenced Coordinate Frames
ENDDATA 9c1b35a4
